         347
   ETOT =   -32477.327843      T_instantaneous =      0.0000
  Si      6.764549      0.001258      4.666755
  Si     20.283753     -7.806741      4.656732
  Si     20.283311      7.809253      4.656101
  Si     20.251364      0.001334      4.553255
  Si     13.538760      3.877145      4.549880
  Si     13.539190     -3.875146      4.548131
  Si     40.564816      0.001111      4.549522
  Si     27.043459      7.810586      4.545880
  Si     27.067868      0.001091      4.491011
  Si     27.043732     -7.807210      4.545011
  Si     33.789844     -3.879035      4.491154
  Si     33.790228      3.881213      4.490988
  Si     29.256639      3.973661      3.917200
  Si     29.256584     -3.970443      3.916707
  Si     36.134855      0.001140      3.917010
  Si     11.192240      0.000839      3.899396
  Si     18.068936     -3.971751      3.900184
  Si     18.068618      3.973970      3.900350
  Si      7.748223      1.863581      3.353459
  Si     21.403695      6.026343      3.346603
  Si     21.403984     -6.023834      3.346705
  Si      4.684350      0.001293      3.336691
  Si     18.179179      7.888066      3.346473
  Si     18.179667     -7.885911      3.346827
  Si      7.748325     -1.861325      3.353643
  Si     21.323478      9.611933      3.331017
  Si     21.323891     -9.609318      3.331443
  Si     21.357388     -1.786474      3.286699
  Si     21.357303      1.789232      3.286463
  Si     11.438178      3.941720      3.283798
  Si     14.533435      5.730197      3.285052
  Si     14.534079     -5.728021      3.283873
  Si     11.438922     -3.939592      3.282085
  Si     18.140162      0.001325      3.252586
  Si     14.595215      2.048406      3.250714
  Si     14.595719     -2.045909      3.249887
  Si     25.946250      1.788041      3.224512
  Si     32.804576     -5.743713      3.224401
  Si     25.946513     -1.783785      3.223135
  Si     32.804654      5.746432      3.224372
  Si     39.587892     -1.861288      3.250423
  Si     39.588137      1.863522      3.250141
  Si     26.001713      9.617310      3.243773
  Si     42.650166      0.001256      3.245387
  Si     35.896546     -3.957919      3.223566
  Si     35.896791      3.960166      3.223299
  Si     29.144527      7.896059      3.247357
  Si     25.918270      6.033761      3.248325
  Si     29.144903     -7.893547      3.247208
  Si     26.002061     -9.614355      3.243491
  Si     25.918738     -6.030637      3.246889
  Si     29.178178      0.001824      3.179614
  Si     32.734070     -2.051556      3.179406
  Si     32.734226      2.054188      3.179455
  Si     13.329003      0.001202      2.729678
  Si     17.001303      2.121659      2.731625
  Si     17.001887     -2.119318      2.731368
  Si     10.147155      1.890913      2.726932
  Si     16.955646     -5.820715      2.725390
  Si     20.227345      3.932763      2.727369
  Si     16.954891      5.822726      2.725703
  Si     20.227776     -3.930243      2.727385
  Si     10.147322     -1.888914      2.726388
  Si     30.314159     -2.136748      2.701818
  Si     30.314209      2.139885      2.702217
  Si     30.366841      5.804404      2.704485
  Si     27.115540      3.927962      2.705439
  Si     30.366997     -5.801495      2.704266
  Si     34.018413      0.001229      2.701759
  Si     37.166144      1.878031      2.704960
  Si     37.165979     -1.875942      2.705032
  Si     27.115623     -3.924032      2.704804
  Si      6.097298      3.493409      2.542927
  Si      6.097123     -3.490875      2.543383
  Si     23.642511      6.641103      2.542350
  Si     23.642720     -6.638498      2.542065
  Si     17.590272    -10.131419      2.542993
  Si     17.589957     10.133699      2.543025
  Si     10.778170      6.195877      2.533233
  Si     23.637814      1.232195      2.533796
  Si     23.637689     -1.229234      2.533741
  Si     10.778548     -6.193948      2.532643
  Si     12.909530      7.426727      2.533428
  Si     12.909909     -7.424696      2.532916
  Si      3.943233      2.251262      2.500566
  Si      3.943061     -2.248647      2.500732
  Si     23.644848      9.127516      2.499929
  Si     23.645036     -9.124952      2.499695
  Si     19.742459     11.378135      2.499748
  Si     19.742914    -11.375689      2.499912
  Si     20.264096      7.776318      2.138492
  Si     20.264483     -7.773795      2.138601
  Si     20.242984      0.001366      2.071957
  Si     13.544566      3.871303      2.069379
  Si     13.545709     -3.868756      2.068005
  Si      6.805373      0.001111      2.143244
  Si     40.539091      0.000982      2.057052
  Si     27.058583      0.003671      2.024864
  Si     33.793375     -3.887940      2.025002
  Si     33.793420      3.891170      2.024876
  Si     27.055823      7.788341      2.055671
  Si     27.056414     -7.785770      2.055078
  Si      0.000606      0.000668      0.596808
  Si     16.916525      1.975851      0.251968
  Si     16.916782     -1.974385      0.251731
  Si     30.429862     -1.937655      0.248454
  Si     30.429503      1.939501      0.248709
  Si     13.495611      0.000832      0.250464
  Si     27.015937      3.910130      0.253827
  Si     30.430780      5.880751      0.252987
  Si     30.431363     -5.878812      0.252574
  Si     33.787269      0.000753      0.248488
  Si     37.200557      1.971806      0.253486
  Si     37.200550     -1.970517      0.253540
  Si     27.016017     -3.908159      0.253337
  Si     20.272256      3.908529      0.253294
  Si     10.144280      1.941099      0.253127
  Si     16.911842     -5.846641      0.251935
  Si     20.272377     -3.906846      0.253339
  Si     16.911682      5.848106      0.252172
  Si     10.144312     -1.939665      0.252757
  Si      6.722963      3.874626      0.201323
  Si     23.657959      5.904619      0.201706
  Si     23.657894     -5.902723      0.201386
  Si     16.946010     -9.777260      0.202001
  Si     16.945845      9.778745      0.201986
  Si      6.722996     -3.873043      0.201935
  Si     23.660655      1.930395      0.188092
  Si     10.162069      5.865809      0.187616
  Si     23.660629     -1.928390      0.188239
  Si     13.503038      7.794572      0.187668
  Si     10.161935     -5.864379      0.187194
  Si     13.503114     -7.793316      0.187259
  Si      3.342445      1.959594      0.151783
  Si      3.342311     -1.957909      0.151973
  Si     23.690113      9.790172      0.150618
  Si     23.690301     -9.788480      0.150801
  Si     20.294425     11.749597      0.151093
  Si     20.294639    -11.748064      0.151214
  Si     20.280058      7.803391     -0.223897
  Si     20.280295     -7.802153     -0.223840
  Si      6.767545      0.000609     -0.219517
  Si     20.274061      0.000832     -0.287567
  Si     13.526576      3.896262     -0.289270
  Si     13.526705     -3.894715     -0.290528
  Si     40.569051      0.000889     -0.283481
  Si     27.048134      0.000439     -0.315056
  Si     33.800130     -3.897066     -0.315016
  Si     33.799939      3.898224     -0.315134
  Si     27.039990      7.813735     -0.285256
  Si     27.040016     -7.811859     -0.285806
  Si     24.709901     11.850776     -0.638518
  Si     24.709907    -11.849245     -0.638317
  Si     45.231722      0.000874     -0.638355
  Si     31.540803     -7.819019     -0.631279
  Si     24.781453      3.919170     -0.631001
  Si     24.781451     -3.917344     -0.631047
  Si     31.540507      7.820543     -0.631262
  Si     38.326315      3.902213     -0.631188
  Si     38.326135     -3.901098     -0.631083
  Si     31.548832      0.000991     -0.657756
  Si     18.032979      3.909684     -0.662518
  Si     18.033086     -3.908432     -0.662299
  Si     11.261900      0.000724     -0.662515
  Si     17.933296      0.000797     -0.708535
  Si     14.697642      1.869174     -0.708868
  Si     14.697830     -1.867494     -0.708998
  Si     28.208888      5.786693     -0.704740
  Si     38.229551      0.000594     -0.704923
  Si     28.209205     -5.784938     -0.704805
  Si     28.210284      2.036122     -0.708399
  Si     31.455767      3.909380     -0.708665
  Si     28.210758     -2.034742     -0.708534
  Si     31.456086     -3.907721     -0.708753
  Si     34.981008     -1.872662     -0.708544
  Si     34.981095      1.873897     -0.708589
  Si     21.433756      5.788609     -0.716536
  Si     17.958124      7.794932     -0.716659
  Si     17.958394     -7.793552     -0.716564
  Si     21.433606     -5.787175     -0.716624
  Si     11.190611      3.886139     -0.720209
  Si     21.432312      2.028602     -0.720004
  Si     21.432274     -2.026913     -0.719983
  Si     14.703358      5.914002     -0.720208
  Si     14.703515     -5.912814     -0.720344
  Si     11.190653     -3.884815     -0.720417
  Si      7.935143      2.006167     -0.716913
  Si      7.935024     -2.004848     -0.716820
  Si     21.440145      9.813318     -0.720024
  Si     21.440430     -9.812055     -0.720207
  Si      4.448069      0.000631     -0.720615
  Si     24.711536      7.825645     -0.758923
  Si     24.711511     -7.823962     -0.758988
  Si     28.194330     -9.835110     -0.759245
  Si     34.966211     -5.916337     -0.761920
  Si     24.716284      0.000882     -0.761899
  Si     34.966154      5.917613     -0.762075
  Si     41.744076      2.010508     -0.758769
  Si     41.743846     -2.008935     -0.758703
  Si     28.194614      9.836697     -0.759302
  Si     24.788564     11.709535     -3.109964
  Si     28.168786      9.758015     -3.109964
  Si     21.408294      9.757934     -3.109964
  Si     31.549064      7.806407     -3.109964
  Si     24.788519      7.806415     -3.109964
  Si     18.028027      7.806333     -3.109964
  Si     34.929338      5.854800     -3.109964
  Si     28.168793      5.854807     -3.109964
  Si     21.408249      5.854815     -3.109964
  Si     14.647755      5.854733     -3.109964
  Si     38.309612      3.903192     -3.109964
  Si     31.549064      3.903200     -3.109964
  Si     24.788523      3.903207     -3.109964
  Si     18.027978      3.903214     -3.109964
  Si     11.267483      3.903134     -3.109964
  Si     41.689886      1.951584     -3.109964
  Si     34.929341      1.951592     -3.109964
  Si     28.168796      1.951600     -3.109964
  Si     21.408252      1.951607     -3.109964
  Si     14.647707      1.951615     -3.109964
  Si      7.887215      1.951535     -3.109964
  Si     45.070109      0.000064     -3.109964
  Si     38.309615     -0.000015     -3.109964
  Si     31.549071     -0.000007     -3.109964
  Si     24.788526      0.000000     -3.109964
  Si     18.027984      0.000007     -3.109964
  Si     11.267438      0.000015     -3.109964
  Si      4.506943     -0.000064     -3.109964
  Si     41.689839     -1.951535     -3.109964
  Si     34.929346     -1.951615     -3.109964
  Si     28.168800     -1.951607     -3.109964
  Si     21.408259     -1.951600     -3.109964
  Si     14.647712     -1.951592     -3.109964
  Si      7.887166     -1.951584     -3.109964
  Si     38.309570     -3.903134     -3.109964
  Si     31.549077     -3.903214     -3.109964
  Si     24.788532     -3.903207     -3.109964
  Si     18.027989     -3.903200     -3.109964
  Si     11.267443     -3.903192     -3.109964
  Si     34.929299     -5.854733     -3.109964
  Si     28.168806     -5.854815     -3.109964
  Si     21.408262     -5.854807     -3.109964
  Si     14.647717     -5.854800     -3.109964
  Si     31.549026     -7.806333     -3.109964
  Si     24.788536     -7.806415     -3.109964
  Si     18.027991     -7.806407     -3.109964
  Si     28.168759     -9.757934     -3.109964
  Si     21.408269     -9.758015     -3.109964
  Si     24.788491    -11.709535     -3.109964
  Si     22.535049     11.709536     -3.906747
  Si     25.915274      9.758017     -3.906747
  Si     19.154780      9.757937     -3.906747
  Si     29.295546      7.806409     -3.906747
  Si     22.535004      7.806415     -3.906747
  Si     15.774509      7.806337     -3.906747
  Si     32.675823      5.854802     -3.906747
  Si     25.915275      5.854809     -3.906747
  Si     19.154733      5.854815     -3.906747
  Si     12.394239      5.854737     -3.906747
  Si     36.056094      3.903194     -3.906747
  Si     29.295552      3.903201     -3.906747
  Si     22.535008      3.903210     -3.906747
  Si     15.774464      3.903217     -3.906747
  Si      9.013968      3.903137     -3.906747
  Si     39.436373      1.951587     -3.906747
  Si     32.675826      1.951594     -3.906747
  Si     25.915281      1.951602     -3.906747
  Si     19.154737      1.951610     -3.906747
  Si     12.394192      1.951618     -3.906747
  Si      5.633700      1.951537     -3.906747
  Si     42.816648     -0.000020     -3.906747
  Si     36.056103     -0.000012     -3.906747
  Si     29.295556     -0.000005     -3.906747
  Si     22.535011      0.000002     -3.906747
  Si     15.774466      0.000010     -3.906747
  Si      9.013923      0.000018     -3.906747
  Si      2.253515     -0.000011     -3.906747
  Si     39.436377     -1.951619     -3.906747
  Si     32.675831     -1.951611     -3.906747
  Si     25.915285     -1.951605     -3.906747
  Si     19.154744     -1.951597     -3.906747
  Si     12.394197     -1.951589     -3.906747
  Si      5.633651     -1.951581     -3.906747
  Si     36.056105     -3.903220     -3.906747
  Si     29.295562     -3.903211     -3.906747
  Si     22.535018     -3.903204     -3.906747
  Si     15.774471     -3.903197     -3.906747
  Si      9.013927     -3.903188     -3.906747
  Si     32.675837     -5.854820     -3.906747
  Si     25.915292     -5.854809     -3.906747
  Si     19.154748     -5.854803     -3.906747
  Si     12.394201     -5.854796     -3.906747
  Si     29.295563     -7.806420     -3.906747
  Si     22.535022     -7.806409     -3.906747
  Si     15.774476     -7.806403     -3.906747
  Si     25.915295     -9.758020     -3.906747
  Si     19.154751     -9.758012     -3.906747
  Si     22.535028    -11.709619     -3.906747
  H      22.533971     11.709600     -5.406754
  H      25.914242      9.757996     -5.406754
  H      19.153701      9.757996     -5.406754
  H      29.294512      7.806400     -5.406754
  H      22.533971      7.806400     -5.406754
  H      15.773427      7.806400     -5.406754
  H      32.674782      5.854796     -5.406754
  H      25.914242      5.854796     -5.406754
  H      19.153701      5.854796     -5.406754
  H      12.393157      5.854796     -5.406754
  H      36.055053      3.903200     -5.406754
  H      29.294512      3.903200     -5.406754
  H      22.533971      3.903200     -5.406754
  H      15.773427      3.903200     -5.406754
  H       9.012886      3.903200     -5.406754
  H      39.435321      1.951598     -5.406754
  H      32.674782      1.951598     -5.406754
  H      25.914242      1.951598     -5.406754
  H      19.153701      1.951598     -5.406754
  H      12.393157      1.951598     -5.406754
  H       5.632616      1.951598     -5.406754
  H      42.815592      0.000000     -5.406754
  H      36.055053      0.000000     -5.406754
  H      29.294512      0.000000     -5.406754
  H      22.533971      0.000000     -5.406754
  H      15.773427      0.000000     -5.406754
  H       9.012886      0.000000     -5.406754
  H       2.252351      0.000000     -5.406754
  H      39.435321     -1.951598     -5.406754
  H      32.674782     -1.951598     -5.406754
  H      25.914242     -1.951598     -5.406754
  H      19.153701     -1.951598     -5.406754
  H      12.393157     -1.951598     -5.406754
  H       5.632616     -1.951598     -5.406754
  H      36.055053     -3.903200     -5.406754
  H      29.294512     -3.903200     -5.406754
  H      22.533971     -3.903200     -5.406754
  H      15.773427     -3.903200     -5.406754
  H       9.012886     -3.903200     -5.406754
  H      32.674782     -5.854796     -5.406754
  H      25.914242     -5.854796     -5.406754
  H      19.153701     -5.854796     -5.406754
  H      12.393157     -5.854796     -5.406754
  H      29.294512     -7.806400     -5.406754
  H      22.533971     -7.806400     -5.406754
  H      15.773427     -7.806400     -5.406754
  H      25.914242     -9.757996     -5.406754
  H      19.153701     -9.757996     -5.406754
  H      22.533971    -11.709600     -5.406754
